<?xml version="1.0" encoding="UTF-8"?>

<!-- generated on 2023-11-02 14:33:42 by Eclipse SUMO netedit Version v1_18_0+2345-1e1f4673c2b
-->

<routes xmlns:xsi="http://www.w3.org/2001/XMLSchema-instance" xsi:noNamespaceSchemaLocation="http://sumo.dlr.de/xsd/routes_file.xsd">
    <!-- Vehicles, containers and containers (sorted by depart) -->
    <container id="customID" depart="0.00">
        <tranship from="Edge0" busStop="busStopA"/>
    </container>
    <container id="c_0" depart="0.00">
        <tranship from="Edge1" busStop="busStopA"/>
    </container>
</routes>
