<?xml version="1.0" encoding="UTF-8"?>

<!-- generated on 2023-11-02 14:37:51 by Eclipse SUMO netedit Version v1_18_0+2345-1e1f4673c2b
-->

<routes xmlns:xsi="http://www.w3.org/2001/XMLSchema-instance" xsi:noNamespaceSchemaLocation="http://sumo.dlr.de/xsd/routes_file.xsd">
    <!-- Vehicles, containers and containers (sorted by depart) -->
    <containerFlow id="cf_0" begin="0.00" end="3600.00" containersPerHour="1800">
        <tranship from="Edge0" busStop="busStopA"/>
    </containerFlow>
    <containerFlow id="cf_1" begin="0.00" end="3600.00" containersPerHour="20.49997152781731912796">
        <tranship from="Edge0" to="Edge2"/>
    </containerFlow>
    <containerFlow id="cf_2" begin="0.00" end="3600.00" containersPerHour="22.00004888899753296982">
        <tranship from="Edge0" to="Edge2"/>
    </containerFlow>
</routes>
