<?xml version="1.0" encoding="UTF-8"?>

<!-- generated on 2023-11-02 14:38:28 by Eclipse SUMO netedit Version v1_18_0+2345-1e1f4673c2b
-->

<routes xmlns:xsi="http://www.w3.org/2001/XMLSchema-instance" xsi:noNamespaceSchemaLocation="http://sumo.dlr.de/xsd/routes_file.xsd">
    <!-- Vehicles, containers and containers (sorted by depart) -->
    <container id="f_0" depart="10.20" departPos="0.00" color="red">
        <param key="KeyA1" value="valueA1"/>
        <param key="KeyA2" value="valueA3"/>
        <param key="KeyA3" value="valueA2"/>
        <tranship from="Edge0" to="Edge1"/>
    </container>
    <container id="f_1" depart="10.20" departPos="11.00" color="blue">
        <param key="KeyB1" value="valueB1"/>
        <param key="KeyB2" value="valueB3"/>
        <param key="KeyB3" value="valueB2"/>
        <tranship from="Edge1" to="Edge2"/>
    </container>
</routes>
