<?xml version="1.0" encoding="UTF-8"?>

<!-- generated on 2023-11-02 14:48:08 by Eclipse SUMO netedit Version v1_18_0+2345-1e1f4673c2b
-->

<routes xmlns:xsi="http://www.w3.org/2001/XMLSchema-instance" xsi:noNamespaceSchemaLocation="http://sumo.dlr.de/xsd/routes_file.xsd">
    <!-- Vehicles, containers and containers (sorted by depart) -->
    <containerFlow id="cf_0" begin="10.00" departPos="0.00" color="red" end="3600.00" containersPerHour="1200">
        <param key="keyFinal1" value="value1"/>
        <param key="keyFinal2" value="value2"/>
        <param key="keyFinal3" value="value3"/>
        <tranship from="Edge0" to="Edge1"/>
    </containerFlow>
    <containerFlow id="cf_1" begin="12.00" departPos="11.00" color="blue" end="3800.00" containersPerHour="11501.59744408945698523894">
        <param key="keyFinal1" value="value1"/>
        <param key="keyFinal2" value="value2"/>
        <param key="keyFinal3" value="value3"/>
        <tranship from="Edge1" to="Edge2"/>
    </containerFlow>
</routes>
