<?xml version="1.0" encoding="UTF-8"?>

<!-- generated on 2023-10-23 10:04:17 by Eclipse SUMO netedit Version v1_18_0+2194-cb2c4c06db2
-->

<routes xmlns:xsi="http://www.w3.org/2001/XMLSchema-instance" xsi:noNamespaceSchemaLocation="http://sumo.dlr.de/xsd/routes_file.xsd">
    <!-- Vehicles, containers and containers (sorted by depart) -->
    <container id="c_0" depart="0.00" color="139,131,120">
        <tranship from="Edge0" busStop="busStopA"/>
    </container>
    <container id="c_1" depart="0.00" color="red">
        <tranship from="Edge0" busStop="busStopA"/>
    </container>
</routes>
