<?xml version="1.0" encoding="UTF-8"?>

<!-- generated on 2022-06-01 15:30:44 by Eclipse SUMO netedit Version v1_13_0+0541-af1312cc9f7
-->

<routes xmlns:xsi="http://www.w3.org/2001/XMLSchema-instance" xsi:noNamespaceSchemaLocation="http://sumo.dlr.de/xsd/routes_file.xsd">
    <!-- Vehicles, containers and containers (sorted by depart) -->
    <containerFlow id="c_0" begin="0.00" end="23.00" containersPerHour="1200.00">
        <tranship from="Edge0" to="Edge2"/>
    </containerFlow>
    <containerFlow id="c_3" begin="3.00" departPos="-30.00" end="23.00" containersPerHour="1200.00">
        <tranship from="Edge0" to="Edge2"/>
    </containerFlow>
    <containerFlow id="c_4" begin="4.00" departPos="12.30" end="23.00" containersPerHour="1200.00">
        <tranship from="Edge0" to="Edge2"/>
    </containerFlow>
    <containerFlow id="c_5" begin="5.00" departPos="8.00" end="23.00" containersPerHour="1200.00">
        <tranship from="Edge0" to="Edge2"/>
    </containerFlow>
</routes>
