<?xml version="1.0" encoding="UTF-8"?>

<!-- generated on 2023-11-02 14:45:32 by Eclipse SUMO netedit Version v1_18_0+2345-1e1f4673c2b
-->

<routes xmlns:xsi="http://www.w3.org/2001/XMLSchema-instance" xsi:noNamespaceSchemaLocation="http://sumo.dlr.de/xsd/routes_file.xsd">
    <!-- Vehicles, containers and containers (sorted by depart) -->
    <containerFlow id="cf_0" begin="10.00" departPos="0.00" color="red" number="26" containersPerHour="1200">
        <param key="KeyA1" value="valueA1"/>
        <param key="KeyA2" value="valueA3"/>
        <param key="KeyA3" value="valueA2"/>
        <tranship from="Edge0" to="Edge1"/>
    </containerFlow>
    <containerFlow id="cf_1" begin="12.00" departPos="11.00" color="blue" number="26" containersPerHour="11501.59744408945698523894">
        <param key="KeyB1" value="valueB1"/>
        <param key="KeyB2" value="valueB3"/>
        <param key="KeyB3" value="valueB2"/>
        <tranship from="Edge1" to="Edge2"/>
    </containerFlow>
</routes>
