<?xml version="1.0" encoding="UTF-8"?>

<!-- generated on 2024-09-02 09:11:56 by Eclipse SUMO netedit Version v1_20_0+1821-fef78581e33
<neteditConfiguration xmlns:xsi="http://www.w3.org/2001/XMLSchema-instance" xsi:noNamespaceSchemaLocation="http://sumo.dlr.de/xsd/neteditConfiguration.xsd">

    <input>
        <additional-files value="D:\Netedit_dev\tests\netedit\network\junctions\merge\additionals.add.xml"/>
        <route-files value="D:\Netedit_dev\tests\netedit\network\junctions\merge\routes.rou.xml"/>
        <data-files value="D:\Netedit_dev\tests\netedit\network\junctions\merge\datas.dat.xml"/>
        <sumo-net-file value="D:\Netedit_dev\tests\netedit\network\junctions\merge\net.net.xml"/>
    </input>

    <output>
        <output-file value="D:\Netedit_dev\tests\netedit\network\junctions\merge\net.net.xml"/>
    </output>

    <processing>
        <geometry.min-radius.fix.railways value="false"/>
        <geometry.max-grade.fix value="false"/>
        <offset.disable-normalization value="true"/>
        <lefthand value="0"/>
    </processing>

    <junctions>
        <no-turnarounds value="true"/>
        <junctions.corner-detail value="5"/>
        <junctions.limit-turn-speed value="5.50"/>
        <rectangular-lane-cut value="0"/>
    </junctions>

    <pedestrian>
        <walkingareas value="0"/>
    </pedestrian>

</neteditConfiguration>
-->

<net version="1.20" junctionCornerDetail="5" limitTurnSpeed="5.50" xmlns:xsi="http://www.w3.org/2001/XMLSchema-instance" xsi:noNamespaceSchemaLocation="http://sumo.dlr.de/xsd/net_file.xsd">

    <location netOffset="0.00,0.00" convBoundary="-60.00,-30.00,60.00,30.00" origBoundary="-10000000000.000000,-10000000000.000000,10000000000.000000,10000000000.000000" projParameter="+proj=merc +a=6378137 +b=6378137 +lat_ts=0.0 +lon_0=0.0 +x_0=0.0 +y_0=0 +k=1.0 +units=m +nadgrids=@null +wktext +no_defs"/>

    <edge id=":J0_0" function="internal">
        <lane id=":J0_0_0" index="0" speed="13.89" length="14.40" shape="8.40,7.20 8.40,-7.20"/>
    </edge>
    <edge id=":J0_1" function="internal">
        <lane id=":J0_1_0" index="0" speed="8.00" length="4.07" shape="8.40,7.20 8.95,3.35 9.04,3.20"/>
    </edge>
    <edge id=":J0_6" function="internal">
        <lane id=":J0_6_0" index="0" speed="8.00" length="10.13" shape="9.04,3.20 10.60,0.60 13.35,-1.05 17.20,-1.60"/>
    </edge>
    <edge id=":J0_2" function="internal">
        <lane id=":J0_2_0" index="0" speed="6.51" length="9.03" shape="17.20,1.60 14.75,1.95 13.00,3.00 11.95,4.75 11.60,7.20"/>
    </edge>
    <edge id=":J0_3" function="internal">
        <lane id=":J0_3_0" index="0" speed="8.00" length="14.19" shape="17.20,1.60 13.35,1.05 10.60,-0.60 8.95,-3.35 8.40,-7.20"/>
    </edge>
    <edge id=":J0_4" function="internal">
        <lane id=":J0_4_0" index="0" speed="6.51" length="9.03" shape="11.60,-7.20 11.95,-4.75 13.00,-3.00 14.75,-1.95 17.20,-1.60"/>
    </edge>
    <edge id=":J0_5" function="internal">
        <lane id=":J0_5_0" index="0" speed="13.89" length="14.40" shape="11.60,-7.20 11.60,7.20"/>
    </edge>
    <edge id=":J4_0" function="internal">
        <lane id=":J4_0_0" index="0" speed="6.08" length="7.74" shape="-8.40,-3.20 -8.70,-1.10 -9.60,0.40 -11.10,1.30 -13.20,1.60"/>
    </edge>
    <edge id=":J4_1" function="internal">
        <lane id=":J4_1_0" index="0" speed="3.90" length="2.58" shape="-13.20,-1.60 -12.50,-1.70 -12.00,-2.00 -11.70,-2.50 -11.60,-3.20"/>
    </edge>
    <edge id=":J5_0" function="internal">
        <lane id=":J5_0_0" index="0" speed="6.08" length="7.74" shape="-26.80,1.60 -28.90,1.30 -30.40,0.40 -31.30,-1.10 -31.60,-3.20"/>
    </edge>
    <edge id=":J5_1" function="internal">
        <lane id=":J5_1_0" index="0" speed="3.90" length="2.58" shape="-28.40,-3.20 -28.30,-2.50 -28.00,-2.00 -27.50,-1.70 -26.80,-1.60"/>
    </edge>
    <edge id=":J6_0" function="internal">
        <lane id=":J6_0_0" index="0" speed="6.08" length="7.74" shape="-31.60,-16.80 -31.30,-18.90 -30.40,-20.40 -28.90,-21.30 -26.80,-21.60"/>
    </edge>
    <edge id=":J6_1" function="internal">
        <lane id=":J6_1_0" index="0" speed="3.90" length="2.58" shape="-26.80,-18.40 -27.50,-18.30 -28.00,-18.00 -28.30,-17.50 -28.40,-16.80"/>
    </edge>
    <edge id=":J7_0" function="internal">
        <lane id=":J7_0_0" index="0" speed="3.90" length="2.58" shape="-11.60,-16.80 -11.70,-17.50 -12.00,-18.00 -12.50,-18.30 -13.20,-18.40"/>
    </edge>
    <edge id=":J7_1" function="internal">
        <lane id=":J7_1_0" index="0" speed="6.08" length="7.74" shape="-13.20,-21.60 -11.10,-21.30 -9.60,-20.40 -8.70,-18.90 -8.40,-16.80"/>
    </edge>
    <edge id=":JunctionExtern0_0" function="internal">
        <lane id=":JunctionExtern0_0_0" index="0" disallow="pedestrian" speed="3.53" length="4.38" width="3.00" shape="-60.00,1.50 -61.12,0.75 -61.50,0.00 -61.12,-0.75 -60.00,-1.50"/>
    </edge>
    <edge id=":JunctionExtern1_0" function="internal">
        <lane id=":JunctionExtern1_0_0" index="0" disallow="pedestrian" speed="3.53" length="4.38" width="3.00" shape="60.00,-1.50 61.12,-0.75 61.50,0.00 61.12,0.75 60.00,1.50"/>
    </edge>

    <edge id="-E0" from="J1" to="J0" priority="-1">
        <lane id="-E0_0" index="0" speed="13.89" length="12.80" shape="8.40,20.00 8.40,7.20"/>
    </edge>
    <edge id="-E1" from="J2" to="J0" priority="-1">
        <lane id="-E1_0" index="0" speed="13.89" length="12.80" shape="11.60,-20.00 11.60,-7.20"/>
    </edge>
    <edge id="-E2" from="J3" to="J0" priority="-1">
        <lane id="-E2_0" index="0" speed="13.89" length="12.80" shape="30.00,1.60 17.20,1.60"/>
    </edge>
    <edge id="-E3" from="J5" to="J4" priority="-1">
        <lane id="-E3_0" index="0" speed="13.89" length="13.60" shape="-26.80,-1.60 -13.20,-1.60"/>
    </edge>
    <edge id="-E4" from="J6" to="J5" priority="-1">
        <lane id="-E4_0" index="0" speed="13.89" length="13.60" shape="-28.40,-16.80 -28.40,-3.20"/>
    </edge>
    <edge id="-E5" from="J7" to="J6" priority="-1">
        <lane id="-E5_0" index="0" speed="13.89" length="13.60" shape="-13.20,-18.40 -26.80,-18.40"/>
    </edge>
    <edge id="-E6" from="J4" to="J7" priority="-1">
        <lane id="-E6_0" index="0" speed="13.89" length="13.60" shape="-11.60,-3.20 -11.60,-16.80"/>
    </edge>
    <edge id="-E7" from="J9" to="J8" priority="-1">
        <lane id="-E7_0" index="0" speed="13.89" length="20.00" shape="-10.00,21.60 -30.00,21.60"/>
    </edge>
    <edge id="E0" from="J0" to="J1" priority="-1">
        <lane id="E0_0" index="0" speed="13.89" length="12.80" shape="11.60,7.20 11.60,20.00"/>
    </edge>
    <edge id="E1" from="J0" to="J2" priority="-1">
        <lane id="E1_0" index="0" speed="13.89" length="12.80" shape="8.40,-7.20 8.40,-20.00"/>
    </edge>
    <edge id="E2" from="J0" to="J3" priority="-1">
        <lane id="E2_0" index="0" speed="13.89" length="12.80" shape="17.20,-1.60 30.00,-1.60"/>
    </edge>
    <edge id="E3" from="J4" to="J5" priority="-1">
        <lane id="E3_0" index="0" speed="13.89" length="13.60" shape="-13.20,1.60 -26.80,1.60"/>
    </edge>
    <edge id="E4" from="J5" to="J6" priority="-1">
        <lane id="E4_0" index="0" speed="13.89" length="13.60" shape="-31.60,-3.20 -31.60,-16.80"/>
    </edge>
    <edge id="E5" from="J6" to="J7" priority="-1">
        <lane id="E5_0" index="0" speed="13.89" length="13.60" shape="-26.80,-21.60 -13.20,-21.60"/>
    </edge>
    <edge id="E6" from="J7" to="J4" priority="-1">
        <lane id="E6_0" index="0" speed="13.89" length="13.60" shape="-8.40,-16.80 -8.40,-3.20"/>
    </edge>
    <edge id="E7" from="J8" to="J9" priority="-1">
        <lane id="E7_0" index="0" speed="13.89" length="20.00" shape="-30.00,18.40 -10.00,18.40"/>
    </edge>
    <edge id="EdgeExternBot" from="JunctionExtern0" to="JunctionExtern1" priority="-1" length="175.00" shape="-60.00,0.00 -45.00,0.00 -45.00,-25.00 -40.00,-30.00 40.00,-30.00 45.00,-25.00 45.00,0.00 60.00,0.00">
        <lane id="EdgeExternBot_0" index="0" disallow="pedestrian" speed="13.89" length="175.00" width="3.00" shape="-60.00,-1.50 -46.50,-1.50 -46.50,-25.62 -40.62,-31.50 40.62,-31.50 46.50,-25.62 46.50,-1.50 60.00,-1.50"/>
    </edge>
    <edge id="EdgeExternTop" from="JunctionExtern1" to="JunctionExtern0" priority="-1" length="175.00" shape="60.00,0.00 45.00,0.00 45.00,25.00 40.00,30.00 -40.00,30.00 -45.00,25.00 -45.00,0.00 -60.00,0.00">
        <lane id="EdgeExternTop_0" index="0" disallow="pedestrian" speed="13.89" length="175.00" width="3.00" shape="60.00,1.50 46.50,1.50 46.50,25.62 40.62,31.50 -40.62,31.50 -46.50,25.62 -46.50,1.50 -60.00,1.50"/>
    </edge>

    <junction id="J0" type="priority" x="10.00" y="0.00" incLanes="-E0_0 -E2_0 -E1_0" intLanes=":J0_0_0 :J0_6_0 :J0_2_0 :J0_3_0 :J0_4_0 :J0_5_0" shape="6.80,7.20 13.20,7.20 13.64,4.98 14.20,4.20 14.98,3.64 15.98,3.31 17.20,3.20 17.20,-3.20 14.98,-3.64 14.20,-4.20 13.64,-4.98 13.31,-5.98 13.20,-7.20 6.80,-7.20">
        <request index="0" response="000000" foes="001000" cont="0"/>
        <request index="1" response="110000" foes="111000" cont="1"/>
        <request index="2" response="100000" foes="100000" cont="0"/>
        <request index="3" response="100011" foes="100011" cont="0"/>
        <request index="4" response="000000" foes="000010" cont="0"/>
        <request index="5" response="000000" foes="001110" cont="0"/>
    </junction>
    <junction id="J1" type="dead_end" x="10.00" y="20.00" incLanes="E0_0" intLanes="" shape="10.00,20.00 13.20,20.00 10.00,20.00"/>
    <junction id="J2" type="dead_end" x="10.00" y="-20.00" incLanes="E1_0" intLanes="" shape="10.00,-20.00 6.80,-20.00 10.00,-20.00"/>
    <junction id="J3" type="dead_end" x="30.00" y="0.00" incLanes="E2_0" intLanes="" shape="30.00,0.00 30.00,-3.20 30.00,0.00"/>
    <junction id="J4" type="priority" x="-10.00" y="0.00" incLanes="E6_0 -E3_0" intLanes=":J4_0_0 :J4_1_0" shape="-6.80,-3.20 -13.20,-3.20 -13.20,3.20 -9.64,2.49 -8.40,1.60 -7.51,0.36 -6.98,-1.24">
        <request index="0" response="00" foes="00" cont="0"/>
        <request index="1" response="00" foes="00" cont="0"/>
    </junction>
    <junction id="J5" type="priority" x="-30.00" y="0.00" incLanes="E3_0 -E4_0" intLanes=":J5_0_0 :J5_1_0" shape="-26.80,3.20 -26.80,-3.20 -33.20,-3.20 -32.49,0.36 -31.60,1.60 -30.36,2.49 -28.76,3.02">
        <request index="0" response="00" foes="00" cont="0"/>
        <request index="1" response="00" foes="00" cont="0"/>
    </junction>
    <junction id="J6" type="priority" x="-30.00" y="-20.00" incLanes="E4_0 -E5_0" intLanes=":J6_0_0 :J6_1_0" shape="-33.20,-16.80 -26.80,-16.80 -26.80,-23.20 -30.36,-22.49 -31.60,-21.60 -32.49,-20.36 -33.02,-18.76">
        <request index="0" response="00" foes="00" cont="0"/>
        <request index="1" response="00" foes="00" cont="0"/>
    </junction>
    <junction id="J7" type="priority" x="-10.00" y="-20.00" incLanes="-E6_0 E5_0" intLanes=":J7_0_0 :J7_1_0" shape="-13.20,-16.80 -6.80,-16.80 -7.51,-20.36 -8.40,-21.60 -9.64,-22.49 -11.24,-23.02 -13.20,-23.20">
        <request index="0" response="00" foes="00" cont="0"/>
        <request index="1" response="00" foes="00" cont="0"/>
    </junction>
    <junction id="J8" type="dead_end" x="-30.00" y="20.00" incLanes="-E7_0" intLanes="" shape="-30.00,20.00 -30.00,23.20 -30.00,20.00"/>
    <junction id="J9" type="dead_end" x="-10.00" y="20.00" incLanes="E7_0" intLanes="" shape="-10.00,20.00 -10.00,16.80 -10.00,20.00"/>
    <junction id="JunctionExtern0" type="priority" x="-60.00" y="0.00" incLanes="EdgeExternTop_0" intLanes=":JunctionExtern0_0_0" shape="-60.00,0.00 -60.00,3.00 -60.00,0.00">
        <request index="0" response="0" foes="0" cont="0"/>
    </junction>
    <junction id="JunctionExtern1" type="priority" x="60.00" y="0.00" incLanes="EdgeExternBot_0" intLanes=":JunctionExtern1_0_0" shape="60.00,0.00 60.00,-3.00 60.00,0.00">
        <request index="0" response="0" foes="0" cont="0"/>
    </junction>

    <junction id=":J0_6_0" type="internal" x="9.04" y="3.20" incLanes=":J0_1_0 -E1_0" intLanes=":J0_3_0 :J0_4_0 :J0_5_0"/>

    <connection from="-E0" to="E1" fromLane="0" toLane="0" via=":J0_0_0" dir="s" state="M"/>
    <connection from="-E0" to="E2" fromLane="0" toLane="0" via=":J0_1_0" dir="l" state="m"/>
    <connection from="-E1" to="E2" fromLane="0" toLane="0" via=":J0_4_0" dir="r" state="M"/>
    <connection from="-E1" to="E0" fromLane="0" toLane="0" via=":J0_5_0" dir="s" state="M"/>
    <connection from="-E2" to="E0" fromLane="0" toLane="0" via=":J0_2_0" dir="r" state="m"/>
    <connection from="-E2" to="E1" fromLane="0" toLane="0" via=":J0_3_0" dir="l" state="m"/>
    <connection from="-E3" to="-E6" fromLane="0" toLane="0" via=":J4_1_0" dir="r" state="M"/>
    <connection from="-E4" to="-E3" fromLane="0" toLane="0" via=":J5_1_0" dir="r" state="M"/>
    <connection from="-E5" to="-E4" fromLane="0" toLane="0" via=":J6_1_0" dir="r" state="M"/>
    <connection from="-E6" to="-E5" fromLane="0" toLane="0" via=":J7_0_0" dir="r" state="M"/>
    <connection from="E3" to="E4" fromLane="0" toLane="0" via=":J5_0_0" dir="l" state="M"/>
    <connection from="E4" to="E5" fromLane="0" toLane="0" via=":J6_0_0" dir="l" state="M"/>
    <connection from="E5" to="E6" fromLane="0" toLane="0" via=":J7_1_0" dir="l" state="M"/>
    <connection from="E6" to="E3" fromLane="0" toLane="0" via=":J4_0_0" dir="l" state="M"/>
    <connection from="EdgeExternBot" to="EdgeExternTop" fromLane="0" toLane="0" via=":JunctionExtern1_0_0" dir="t" state="M"/>
    <connection from="EdgeExternTop" to="EdgeExternBot" fromLane="0" toLane="0" via=":JunctionExtern0_0_0" dir="t" state="M"/>

    <connection from=":J0_0" to="E1" fromLane="0" toLane="0" dir="s" state="M"/>
    <connection from=":J0_1" to="E2" fromLane="0" toLane="0" via=":J0_6_0" dir="l" state="m"/>
    <connection from=":J0_6" to="E2" fromLane="0" toLane="0" dir="l" state="M"/>
    <connection from=":J0_2" to="E0" fromLane="0" toLane="0" dir="r" state="M"/>
    <connection from=":J0_3" to="E1" fromLane="0" toLane="0" dir="l" state="M"/>
    <connection from=":J0_4" to="E2" fromLane="0" toLane="0" dir="r" state="M"/>
    <connection from=":J0_5" to="E0" fromLane="0" toLane="0" dir="s" state="M"/>
    <connection from=":J4_0" to="E3" fromLane="0" toLane="0" dir="l" state="M"/>
    <connection from=":J4_1" to="-E6" fromLane="0" toLane="0" dir="r" state="M"/>
    <connection from=":J5_0" to="E4" fromLane="0" toLane="0" dir="l" state="M"/>
    <connection from=":J5_1" to="-E3" fromLane="0" toLane="0" dir="r" state="M"/>
    <connection from=":J6_0" to="E5" fromLane="0" toLane="0" dir="l" state="M"/>
    <connection from=":J6_1" to="-E4" fromLane="0" toLane="0" dir="r" state="M"/>
    <connection from=":J7_0" to="-E5" fromLane="0" toLane="0" dir="r" state="M"/>
    <connection from=":J7_1" to="E6" fromLane="0" toLane="0" dir="l" state="M"/>
    <connection from=":JunctionExtern0_0" to="EdgeExternBot" fromLane="0" toLane="0" dir="t" state="M"/>
    <connection from=":JunctionExtern1_0" to="EdgeExternTop" fromLane="0" toLane="0" dir="t" state="M"/>

</net>
