<?xml version="1.0" encoding="UTF-8"?>

<!-- generated on 2024-09-02 15:31:12 by Eclipse SUMO netedit Version v1_20_0+1829-6a550143aba
<neteditConfiguration xmlns:xsi="http://www.w3.org/2001/XMLSchema-instance" xsi:noNamespaceSchemaLocation="http://sumo.dlr.de/xsd/neteditConfiguration.xsd">

    <input>
        <sumo-net-file value="D:\Netedit_dev\tests\netedit\network\trafficlights\net.net.xml"/>
    </input>

    <processing>
        <geometry.min-radius.fix.railways value="false"/>
        <geometry.max-grade.fix value="false"/>
        <offset.disable-normalization value="true"/>
        <lefthand value="0"/>
    </processing>

    <junctions>
        <no-turnarounds value="true"/>
        <junctions.corner-detail value="5"/>
        <junctions.limit-turn-speed value="5.50"/>
        <rectangular-lane-cut value="0"/>
    </junctions>

    <pedestrian>
        <walkingareas value="0"/>
    </pedestrian>

</neteditConfiguration>
-->

<edges version="1.20" xmlns:xsi="http://www.w3.org/2001/XMLSchema-instance" xsi:noNamespaceSchemaLocation="http://sumo.dlr.de/xsd/edges_file.xsd">
    <edge id="-E0" from="J1" to="J0" priority="-1" numLanes="3" speed="13.89">
        <lane index="0" allow="pedestrian"/>
        <lane index="1" disallow="pedestrian"/>
        <lane index="2" disallow="pedestrian"/>
    </edge>
    <edge id="-E1" from="J2" to="J0" priority="-1" numLanes="3" speed="13.89">
        <lane index="0" allow="pedestrian"/>
        <lane index="1" disallow="pedestrian"/>
        <lane index="2" disallow="pedestrian"/>
    </edge>
    <edge id="-E2" from="J3" to="J0" priority="-1" numLanes="3" speed="13.89">
        <lane index="0" allow="pedestrian"/>
        <lane index="1" disallow="pedestrian"/>
        <lane index="2" disallow="pedestrian"/>
    </edge>
    <edge id="-E3" from="J4" to="J0" priority="-1" numLanes="3" speed="13.89">
        <lane index="0" allow="pedestrian"/>
        <lane index="1" disallow="pedestrian"/>
        <lane index="2" disallow="pedestrian"/>
    </edge>
    <edge id="E0" from="J0" to="J1" priority="-1" numLanes="3" speed="13.89">
        <lane index="0" allow="pedestrian"/>
        <lane index="1" disallow="pedestrian"/>
        <lane index="2" disallow="pedestrian"/>
    </edge>
    <edge id="E1" from="J0" to="J2" priority="-1" numLanes="3" speed="13.89">
        <lane index="0" allow="pedestrian"/>
        <lane index="1" disallow="pedestrian"/>
        <lane index="2" disallow="pedestrian"/>
    </edge>
    <edge id="E2" from="J0" to="J3" priority="-1" numLanes="3" speed="13.89">
        <lane index="0" allow="pedestrian"/>
        <lane index="1" disallow="pedestrian"/>
        <lane index="2" disallow="pedestrian"/>
    </edge>
    <edge id="E3" from="J0" to="J4" priority="-1" numLanes="3" speed="13.89">
        <lane index="0" allow="pedestrian"/>
        <lane index="1" disallow="pedestrian"/>
        <lane index="2" disallow="pedestrian"/>
    </edge>
</edges>
