<?xml version="1.0" encoding="UTF-8"?>

<!-- generated on 2024-09-02 15:31:14 by Eclipse SUMO netedit Version v1_20_0+1829-6a550143aba
<neteditConfiguration xmlns:xsi="http://www.w3.org/2001/XMLSchema-instance" xsi:noNamespaceSchemaLocation="http://sumo.dlr.de/xsd/neteditConfiguration.xsd">

    <input>
        <sumo-net-file value="D:\Netedit_dev\tests\netedit\network\trafficlights\net.net.xml"/>
    </input>

    <output>
        <output-file value="D:\Netedit_dev\tests\netedit\network\trafficlights\net.net.xml"/>
    </output>

    <processing>
        <geometry.min-radius.fix.railways value="false"/>
        <geometry.max-grade.fix value="false"/>
        <offset.disable-normalization value="true"/>
        <lefthand value="0"/>
    </processing>

    <junctions>
        <no-turnarounds value="true"/>
        <junctions.corner-detail value="5"/>
        <junctions.limit-turn-speed value="5.50"/>
        <rectangular-lane-cut value="0"/>
    </junctions>

    <pedestrian>
        <walkingareas value="0"/>
    </pedestrian>

</neteditConfiguration>
-->

<net version="1.20" junctionCornerDetail="5" limitTurnSpeed="5.50" xmlns:xsi="http://www.w3.org/2001/XMLSchema-instance" xsi:noNamespaceSchemaLocation="http://sumo.dlr.de/xsd/net_file.xsd">

    <location netOffset="30.00,-20.00" convBoundary="-40.00,-40.00,40.00,40.00" origBoundary="-10000000000.00,-10000000000.00,10000000000.00,10000000000.00" projParameter="!"/>

    <edge id=":J0_0" function="internal">
        <lane id=":J0_0_0" index="0" disallow="pedestrian" speed="6.86" length="10.16" shape="-4.80,11.10 -5.19,8.34 -6.38,6.37 -8.34,5.19 -11.10,4.80"/>
        <lane id=":J0_0_1" index="1" disallow="pedestrian" speed="8.29" length="15.32" shape="-1.60,11.10 -2.19,6.94 -3.98,3.97 -6.94,2.19 -11.10,1.60"/>
    </edge>
    <edge id=":J0_2" function="internal">
        <lane id=":J0_2_0" index="0" disallow="pedestrian" speed="13.89" length="22.20" shape="-1.60,11.10 -1.60,-11.10"/>
    </edge>
    <edge id=":J0_3" function="internal">
        <lane id=":J0_3_0" index="0" disallow="pedestrian" speed="9.51" length="5.01" shape="-1.60,11.10 -0.89,6.14"/>
    </edge>
    <edge id=":J0_16" function="internal">
        <lane id=":J0_16_0" index="0" disallow="pedestrian" speed="9.51" length="15.47" shape="-0.89,6.14 -0.81,5.54 1.58,1.57 5.54,-0.81 11.10,-1.60"/>
    </edge>
    <edge id=":J0_4" function="internal">
        <lane id=":J0_4_0" index="0" disallow="pedestrian" speed="6.86" length="10.16" shape="11.10,4.80 8.34,5.19 6.37,6.38 5.19,8.34 4.80,11.10"/>
        <lane id=":J0_4_1" index="1" disallow="pedestrian" speed="8.29" length="15.32" shape="11.10,1.60 6.94,2.19 3.97,3.98 2.19,6.94 1.60,11.10"/>
    </edge>
    <edge id=":J0_6" function="internal">
        <lane id=":J0_6_0" index="0" disallow="pedestrian" speed="13.89" length="22.20" shape="11.10,1.60 -11.10,1.60"/>
    </edge>
    <edge id=":J0_7" function="internal">
        <lane id=":J0_7_0" index="0" disallow="pedestrian" speed="9.51" length="20.48" shape="11.10,1.60 5.54,0.81 1.57,-1.58 -0.81,-5.54 -1.60,-11.10"/>
    </edge>
    <edge id=":J0_8" function="internal">
        <lane id=":J0_8_0" index="0" disallow="pedestrian" speed="6.86" length="10.16" shape="4.80,-11.10 5.19,-8.34 6.38,-6.37 8.34,-5.19 11.10,-4.80"/>
        <lane id=":J0_8_1" index="1" disallow="pedestrian" speed="8.29" length="15.32" shape="1.60,-11.10 2.19,-6.94 3.98,-3.97 6.94,-2.19 11.10,-1.60"/>
    </edge>
    <edge id=":J0_10" function="internal">
        <lane id=":J0_10_0" index="0" disallow="pedestrian" speed="13.89" length="22.20" shape="1.60,-11.10 1.60,11.10"/>
    </edge>
    <edge id=":J0_11" function="internal">
        <lane id=":J0_11_0" index="0" disallow="pedestrian" speed="9.51" length="5.01" shape="1.60,-11.10 0.89,-6.14"/>
    </edge>
    <edge id=":J0_17" function="internal">
        <lane id=":J0_17_0" index="0" disallow="pedestrian" speed="9.51" length="15.47" shape="0.89,-6.14 0.81,-5.54 -1.58,-1.57 -5.54,0.81 -11.10,1.60"/>
    </edge>
    <edge id=":J0_12" function="internal">
        <lane id=":J0_12_0" index="0" disallow="pedestrian" speed="6.86" length="10.16" shape="-11.10,-4.80 -8.34,-5.19 -6.37,-6.38 -5.19,-8.34 -4.80,-11.10"/>
        <lane id=":J0_12_1" index="1" disallow="pedestrian" speed="8.29" length="15.32" shape="-11.10,-1.60 -6.94,-2.19 -3.97,-3.98 -2.19,-6.94 -1.60,-11.10"/>
    </edge>
    <edge id=":J0_14" function="internal">
        <lane id=":J0_14_0" index="0" disallow="pedestrian" speed="13.89" length="22.20" shape="-11.10,-1.60 11.10,-1.60"/>
    </edge>
    <edge id=":J0_15" function="internal">
        <lane id=":J0_15_0" index="0" disallow="pedestrian" speed="9.51" length="20.48" shape="-11.10,-1.60 -5.54,-0.81 -1.57,1.58 0.81,5.54 1.60,11.10"/>
    </edge>
    <edge id=":J1_0" function="internal">
        <lane id=":J1_0_0" index="0" disallow="pedestrian" speed="5.58" length="9.35" shape="-40.00,4.80 -43.60,2.40 -44.80,0.00 -43.60,-2.40 -40.00,-4.80"/>
        <lane id=":J1_0_1" index="1" disallow="pedestrian" speed="3.65" length="9.35" shape="-40.00,1.60 -41.20,0.80 -41.60,0.00 -41.20,-0.80 -40.00,-1.60"/>
    </edge>
    <edge id=":J2_0" function="internal">
        <lane id=":J2_0_0" index="0" disallow="pedestrian" speed="5.58" length="9.35" shape="40.00,-4.80 43.60,-2.40 44.80,0.00 43.60,2.40 40.00,4.80"/>
        <lane id=":J2_0_1" index="1" disallow="pedestrian" speed="3.65" length="9.35" shape="40.00,-1.60 41.20,-0.80 41.60,0.00 41.20,0.80 40.00,1.60"/>
    </edge>
    <edge id=":J3_0" function="internal">
        <lane id=":J3_0_0" index="0" disallow="pedestrian" speed="5.58" length="9.35" shape="4.80,40.00 2.40,43.60 0.00,44.80 -2.40,43.60 -4.80,40.00"/>
        <lane id=":J3_0_1" index="1" disallow="pedestrian" speed="3.65" length="9.35" shape="1.60,40.00 0.80,41.20 0.00,41.60 -0.80,41.20 -1.60,40.00"/>
    </edge>
    <edge id=":J4_0" function="internal">
        <lane id=":J4_0_0" index="0" disallow="pedestrian" speed="5.58" length="9.35" shape="-4.80,-40.00 -2.40,-43.60 0.00,-44.80 2.40,-43.60 4.80,-40.00"/>
        <lane id=":J4_0_1" index="1" disallow="pedestrian" speed="3.65" length="9.35" shape="-1.60,-40.00 -0.80,-41.20 0.00,-41.60 0.80,-41.20 1.60,-40.00"/>
    </edge>

    <edge id="-E0" from="J1" to="J0" priority="-1">
        <lane id="-E0_0" index="0" allow="pedestrian" speed="13.89" length="28.90" shape="-40.00,-8.00 -11.10,-8.00"/>
        <lane id="-E0_1" index="1" disallow="pedestrian" speed="13.89" length="28.90" shape="-40.00,-4.80 -11.10,-4.80"/>
        <lane id="-E0_2" index="2" disallow="pedestrian" speed="13.89" length="28.90" shape="-40.00,-1.60 -11.10,-1.60"/>
    </edge>
    <edge id="-E1" from="J2" to="J0" priority="-1">
        <lane id="-E1_0" index="0" allow="pedestrian" speed="13.89" length="28.90" shape="40.00,8.00 11.10,8.00"/>
        <lane id="-E1_1" index="1" disallow="pedestrian" speed="13.89" length="28.90" shape="40.00,4.80 11.10,4.80"/>
        <lane id="-E1_2" index="2" disallow="pedestrian" speed="13.89" length="28.90" shape="40.00,1.60 11.10,1.60"/>
    </edge>
    <edge id="-E2" from="J3" to="J0" priority="-1">
        <lane id="-E2_0" index="0" allow="pedestrian" speed="13.89" length="28.90" shape="-8.00,40.00 -8.00,11.10"/>
        <lane id="-E2_1" index="1" disallow="pedestrian" speed="13.89" length="28.90" shape="-4.80,40.00 -4.80,11.10"/>
        <lane id="-E2_2" index="2" disallow="pedestrian" speed="13.89" length="28.90" shape="-1.60,40.00 -1.60,11.10"/>
    </edge>
    <edge id="-E3" from="J4" to="J0" priority="-1">
        <lane id="-E3_0" index="0" allow="pedestrian" speed="13.89" length="28.90" shape="8.00,-40.00 8.00,-11.10"/>
        <lane id="-E3_1" index="1" disallow="pedestrian" speed="13.89" length="28.90" shape="4.80,-40.00 4.80,-11.10"/>
        <lane id="-E3_2" index="2" disallow="pedestrian" speed="13.89" length="28.90" shape="1.60,-40.00 1.60,-11.10"/>
    </edge>
    <edge id="E0" from="J0" to="J1" priority="-1">
        <lane id="E0_0" index="0" allow="pedestrian" speed="13.89" length="28.90" shape="-11.10,8.00 -40.00,8.00"/>
        <lane id="E0_1" index="1" disallow="pedestrian" speed="13.89" length="28.90" shape="-11.10,4.80 -40.00,4.80"/>
        <lane id="E0_2" index="2" disallow="pedestrian" speed="13.89" length="28.90" shape="-11.10,1.60 -40.00,1.60"/>
    </edge>
    <edge id="E1" from="J0" to="J2" priority="-1">
        <lane id="E1_0" index="0" allow="pedestrian" speed="13.89" length="28.90" shape="11.10,-8.00 40.00,-8.00"/>
        <lane id="E1_1" index="1" disallow="pedestrian" speed="13.89" length="28.90" shape="11.10,-4.80 40.00,-4.80"/>
        <lane id="E1_2" index="2" disallow="pedestrian" speed="13.89" length="28.90" shape="11.10,-1.60 40.00,-1.60"/>
    </edge>
    <edge id="E2" from="J0" to="J3" priority="-1">
        <lane id="E2_0" index="0" allow="pedestrian" speed="13.89" length="28.90" shape="8.00,11.10 8.00,40.00"/>
        <lane id="E2_1" index="1" disallow="pedestrian" speed="13.89" length="28.90" shape="4.80,11.10 4.80,40.00"/>
        <lane id="E2_2" index="2" disallow="pedestrian" speed="13.89" length="28.90" shape="1.60,11.10 1.60,40.00"/>
    </edge>
    <edge id="E3" from="J0" to="J4" priority="-1">
        <lane id="E3_0" index="0" allow="pedestrian" speed="13.89" length="28.90" shape="-8.00,-11.10 -8.00,-40.00"/>
        <lane id="E3_1" index="1" disallow="pedestrian" speed="13.89" length="28.90" shape="-4.80,-11.10 -4.80,-40.00"/>
        <lane id="E3_2" index="2" disallow="pedestrian" speed="13.89" length="28.90" shape="-1.60,-11.10 -1.60,-40.00"/>
    </edge>

    <junction id="J0" type="priority" x="0.00" y="0.00" incLanes="-E2_0 -E2_1 -E2_2 -E1_0 -E1_1 -E1_2 -E3_0 -E3_1 -E3_2 -E0_0 -E0_1 -E0_2" intLanes=":J0_0_0 :J0_0_1 :J0_2_0 :J0_16_0 :J0_4_0 :J0_4_1 :J0_6_0 :J0_7_0 :J0_8_0 :J0_8_1 :J0_10_0 :J0_17_0 :J0_12_0 :J0_12_1 :J0_14_0 :J0_15_0" shape="-9.60,11.10 9.60,11.10 9.77,10.27 9.97,9.97 10.27,9.77 10.64,9.64 11.10,9.60 11.10,-9.60 10.27,-9.77 9.97,-9.97 9.77,-10.27 9.64,-10.64 9.60,-11.10 -9.60,-11.10 -9.77,-10.27 -9.97,-9.97 -10.27,-9.77 -10.64,-9.64 -11.10,-9.60 -11.10,9.60 -10.27,9.77 -9.97,9.97 -9.77,10.27 -9.64,10.64">
        <request index="0"  response="0000000000000000" foes="0000100001000000" cont="0"/>
        <request index="1"  response="0000000000000000" foes="0000100001000000" cont="0"/>
        <request index="2"  response="0000000000000000" foes="1111100011000000" cont="0"/>
        <request index="3"  response="0000011100000000" foes="1100011111000000" cont="1"/>
        <request index="4"  response="0000010000000000" foes="1000010000000000" cont="0"/>
        <request index="5"  response="0000010000000000" foes="1000010000000000" cont="0"/>
        <request index="6"  response="0000110000001111" foes="1000110000001111" cont="0"/>
        <request index="7"  response="0111110000001100" foes="0111110000001100" cont="0"/>
        <request index="8"  response="0000000000000000" foes="0100000000001000" cont="0"/>
        <request index="9"  response="0000000000000000" foes="0100000000001000" cont="0"/>
        <request index="10" response="0000000000000000" foes="1100000011111000" cont="0"/>
        <request index="11" response="0000000000000111" foes="1100000011000111" cont="1"/>
        <request index="12" response="0000000000000100" foes="0000000010000100" cont="0"/>
        <request index="13" response="0000000000000100" foes="0000000010000100" cont="0"/>
        <request index="14" response="0000111100001100" foes="0000111110001100" cont="0"/>
        <request index="15" response="0000110001111100" foes="0000110001111100" cont="0"/>
    </junction>
    <junction id="J1" type="priority" x="-40.00" y="0.00" incLanes="E0_0 E0_1 E0_2" intLanes=":J1_0_0 :J1_0_1" shape="-40.00,0.00 -40.00,9.60 -40.00,0.00">
        <request index="0" response="00" foes="00" cont="0"/>
        <request index="1" response="00" foes="00" cont="0"/>
    </junction>
    <junction id="J2" type="priority" x="40.00" y="0.00" incLanes="E1_0 E1_1 E1_2" intLanes=":J2_0_0 :J2_0_1" shape="40.00,0.00 40.00,-9.60 40.00,0.00">
        <request index="0" response="00" foes="00" cont="0"/>
        <request index="1" response="00" foes="00" cont="0"/>
    </junction>
    <junction id="J3" type="priority" x="0.00" y="40.00" incLanes="E2_0 E2_1 E2_2" intLanes=":J3_0_0 :J3_0_1" shape="0.00,40.00 9.60,40.00 0.00,40.00">
        <request index="0" response="00" foes="00" cont="0"/>
        <request index="1" response="00" foes="00" cont="0"/>
    </junction>
    <junction id="J4" type="priority" x="0.00" y="-40.00" incLanes="E3_0 E3_1 E3_2" intLanes=":J4_0_0 :J4_0_1" shape="0.00,-40.00 -9.60,-40.00 0.00,-40.00">
        <request index="0" response="00" foes="00" cont="0"/>
        <request index="1" response="00" foes="00" cont="0"/>
    </junction>

    <junction id=":J0_16_0" type="internal" x="-0.89" y="6.14" incLanes=":J0_3_0 -E3_1 -E3_2" intLanes=":J0_6_0 :J0_7_0 :J0_8_0 :J0_8_1 :J0_10_0 :J0_14_0 :J0_15_0"/>
    <junction id=":J0_17_0" type="internal" x="0.89" y="-6.14" incLanes=":J0_11_0 -E2_1 -E2_2" intLanes=":J0_0_0 :J0_0_1 :J0_2_0 :J0_6_0 :J0_7_0 :J0_14_0 :J0_15_0"/>

    <connection from="-E0" to="E3" fromLane="1" toLane="1" via=":J0_12_0" dir="r" state="m"/>
    <connection from="-E0" to="E3" fromLane="2" toLane="2" via=":J0_12_1" dir="r" state="m"/>
    <connection from="-E0" to="E1" fromLane="2" toLane="2" via=":J0_14_0" dir="s" state="m"/>
    <connection from="-E0" to="E2" fromLane="2" toLane="2" via=":J0_15_0" dir="l" state="m"/>
    <connection from="-E1" to="E2" fromLane="1" toLane="1" via=":J0_4_0" dir="r" state="m"/>
    <connection from="-E1" to="E2" fromLane="2" toLane="2" via=":J0_4_1" dir="r" state="m"/>
    <connection from="-E1" to="E0" fromLane="2" toLane="2" via=":J0_6_0" dir="s" state="m"/>
    <connection from="-E1" to="E3" fromLane="2" toLane="2" via=":J0_7_0" dir="l" state="m"/>
    <connection from="-E2" to="E0" fromLane="1" toLane="1" via=":J0_0_0" dir="r" state="M"/>
    <connection from="-E2" to="E0" fromLane="2" toLane="2" via=":J0_0_1" dir="r" state="M"/>
    <connection from="-E2" to="E3" fromLane="2" toLane="2" via=":J0_2_0" dir="s" state="M"/>
    <connection from="-E2" to="E1" fromLane="2" toLane="2" via=":J0_3_0" dir="l" state="m"/>
    <connection from="-E3" to="E1" fromLane="1" toLane="1" via=":J0_8_0" dir="r" state="M"/>
    <connection from="-E3" to="E1" fromLane="2" toLane="2" via=":J0_8_1" dir="r" state="M"/>
    <connection from="-E3" to="E2" fromLane="2" toLane="2" via=":J0_10_0" dir="s" state="M"/>
    <connection from="-E3" to="E0" fromLane="2" toLane="2" via=":J0_11_0" dir="l" state="m"/>
    <connection from="E0" to="-E0" fromLane="1" toLane="1" via=":J1_0_0" dir="t" state="M"/>
    <connection from="E0" to="-E0" fromLane="2" toLane="2" via=":J1_0_1" dir="t" state="M"/>
    <connection from="E1" to="-E1" fromLane="1" toLane="1" via=":J2_0_0" dir="t" state="M"/>
    <connection from="E1" to="-E1" fromLane="2" toLane="2" via=":J2_0_1" dir="t" state="M"/>
    <connection from="E2" to="-E2" fromLane="1" toLane="1" via=":J3_0_0" dir="t" state="M"/>
    <connection from="E2" to="-E2" fromLane="2" toLane="2" via=":J3_0_1" dir="t" state="M"/>
    <connection from="E3" to="-E3" fromLane="1" toLane="1" via=":J4_0_0" dir="t" state="M"/>
    <connection from="E3" to="-E3" fromLane="2" toLane="2" via=":J4_0_1" dir="t" state="M"/>

    <connection from=":J0_0" to="E0" fromLane="0" toLane="1" dir="r" state="M"/>
    <connection from=":J0_0" to="E0" fromLane="1" toLane="2" dir="r" state="M"/>
    <connection from=":J0_2" to="E3" fromLane="0" toLane="2" dir="s" state="M"/>
    <connection from=":J0_3" to="E1" fromLane="0" toLane="2" via=":J0_16_0" dir="l" state="m"/>
    <connection from=":J0_16" to="E1" fromLane="0" toLane="2" dir="l" state="M"/>
    <connection from=":J0_4" to="E2" fromLane="0" toLane="1" dir="r" state="M"/>
    <connection from=":J0_4" to="E2" fromLane="1" toLane="2" dir="r" state="M"/>
    <connection from=":J0_6" to="E0" fromLane="0" toLane="2" dir="s" state="M"/>
    <connection from=":J0_7" to="E3" fromLane="0" toLane="2" dir="l" state="M"/>
    <connection from=":J0_8" to="E1" fromLane="0" toLane="1" dir="r" state="M"/>
    <connection from=":J0_8" to="E1" fromLane="1" toLane="2" dir="r" state="M"/>
    <connection from=":J0_10" to="E2" fromLane="0" toLane="2" dir="s" state="M"/>
    <connection from=":J0_11" to="E0" fromLane="0" toLane="2" via=":J0_17_0" dir="l" state="m"/>
    <connection from=":J0_17" to="E0" fromLane="0" toLane="2" dir="l" state="M"/>
    <connection from=":J0_12" to="E3" fromLane="0" toLane="1" dir="r" state="M"/>
    <connection from=":J0_12" to="E3" fromLane="1" toLane="2" dir="r" state="M"/>
    <connection from=":J0_14" to="E1" fromLane="0" toLane="2" dir="s" state="M"/>
    <connection from=":J0_15" to="E2" fromLane="0" toLane="2" dir="l" state="M"/>
    <connection from=":J1_0" to="-E0" fromLane="0" toLane="1" dir="t" state="M"/>
    <connection from=":J1_0" to="-E0" fromLane="1" toLane="2" dir="t" state="M"/>
    <connection from=":J2_0" to="-E1" fromLane="0" toLane="1" dir="t" state="M"/>
    <connection from=":J2_0" to="-E1" fromLane="1" toLane="2" dir="t" state="M"/>
    <connection from=":J3_0" to="-E2" fromLane="0" toLane="1" dir="t" state="M"/>
    <connection from=":J3_0" to="-E2" fromLane="1" toLane="2" dir="t" state="M"/>
    <connection from=":J4_0" to="-E3" fromLane="0" toLane="1" dir="t" state="M"/>
    <connection from=":J4_0" to="-E3" fromLane="1" toLane="2" dir="t" state="M"/>

</net>
