<?xml version="1.0" encoding="UTF-8"?>

<!-- generated on 2023-11-01 10:05:10 by Eclipse SUMO netedit Version v1_18_0+2308-a3ff52b6f50
-->

<routes xmlns:xsi="http://www.w3.org/2001/XMLSchema-instance" xsi:noNamespaceSchemaLocation="http://sumo.dlr.de/xsd/routes_file.xsd">
    <!-- Vehicles, containers and containers (sorted by depart) -->
    <container id="c_0" depart="0.00" departPos="-20.00">
        <tranship from="Edge0" busStop="busStopA"/>
    </container>
    <container id="c_1" depart="0.00" departPos="7.80">
        <tranship from="Edge0" busStop="busStopA"/>
    </container>
</routes>
